Input Parameters:
   integrator                     = md
   tinit                          = 0
   dt                             = 0.002
   nsteps                         = 100000
   init-step                      = 0
   simulation-part                = 1
   mts                            = false
   comm-mode                      = Linear
   nstcomm                        = 100
   bd-fric                        = 0
   ld-seed                        = -294150401
   emtol                          = 10
   emstep                         = 0.01
   niter                          = 20
   fcstep                         = 0
   nstcgsteep                     = 1000
   nbfgscorr                      = 10
   rtpi                           = 0.05
   nstxout                        = 0
   nstvout                        = 0
   nstfout                        = 0
   nstlog                         = 500
   nstcalcenergy                  = 100
   nstenergy                      = 500
   nstxout-compressed             = 1000
   compressed-x-precision         = 1000
   cutoff-scheme                  = Verlet
   nstlist                        = 10
   pbc                            = xyz
   periodic-molecules             = false
   verlet-buffer-tolerance        = 0.005
   rlist                          = 1
   coulombtype                    = PME
   coulomb-modifier               = Potential-shift
   rcoulomb-switch                = 0
   rcoulomb                       = 1
   epsilon-r                      = 1
   epsilon-rf                     = inf
   vdw-type                       = Cut-off
   vdw-modifier                   = Potential-shift
   rvdw-switch                    = 0
   rvdw                           = 1
   DispCorr                       = EnerPres
   table-extension                = 1
   fourierspacing                 = 0.12
   fourier-nx                     = 25
   fourier-ny                     = 25
   fourier-nz                     = 25
   pme-order                      = 4
   ewald-rtol                     = 1e-05
   ewald-rtol-lj                  = 0.001
   lj-pme-comb-rule               = Geometric
   ewald-geometry                 = 3d
   epsilon-surface                = 0
   tcoupl                         = V-rescale
   nsttcouple                     = 10
   nh-chain-length                = 0
   print-nose-hoover-chain-variables = false
   pcoupl                         = Parrinello-Rahman
   pcoupltype                     = Isotropic
   nstpcouple                     = 10
   tau-p                          = 0.5
   compressibility (3x3):
      compressibility[    0]={ 4.50000e-05,  0.00000e+00,  0.00000e+00}
      compressibility[    1]={ 0.00000e+00,  4.50000e-05,  0.00000e+00}
      compressibility[    2]={ 0.00000e+00,  0.00000e+00,  4.50000e-05}
   ref-p (3x3):
      ref-p[    0]={ 1.00000e+00,  0.00000e+00,  0.00000e+00}
      ref-p[    1]={ 0.00000e+00,  1.00000e+00,  0.00000e+00}
      ref-p[    2]={ 0.00000e+00,  0.00000e+00,  1.00000e+00}
   refcoord-scaling               = No
   posres-com (3):
      posres-com[0]= 0.00000e+00
      posres-com[1]= 0.00000e+00
      posres-com[2]= 0.00000e+00
   posres-comB (3):
      posres-comB[0]= 0.00000e+00
      posres-comB[1]= 0.00000e+00
      posres-comB[2]= 0.00000e+00
   QMMM                           = false
qm-opts:
   ngQM                           = 0
   constraint-algorithm           = Lincs
   continuation                   = false
   Shake-SOR                      = false
   shake-tol                      = 0.0001
   lincs-order                    = 4
   lincs-iter                     = 1
   lincs-warnangle                = 30
   nwall                          = 0
   wall-type                      = 9-3
   wall-r-linpot                  = -1
   wall-atomtype[0]               = -1
   wall-atomtype[1]               = -1
   wall-density[0]                = 0
   wall-density[1]                = 0
   wall-ewald-zfac                = 3
   pull                           = false
   awh                            = false
   rotation                       = false
   interactiveMD                  = false
   disre                          = No
   disre-weighting                = Conservative
   disre-mixed                    = false
   dr-fc                          = 1000
   dr-tau                         = 0
   nstdisreout                    = 100
   orire-fc                       = 0
   orire-tau                      = 0
   nstorireout                    = 100
   free-energy                    = no
   cos-acceleration               = 0
   deform (3x3):
      deform[    0]={ 0.00000e+00,  0.00000e+00,  0.00000e+00}
      deform[    1]={ 0.00000e+00,  0.00000e+00,  0.00000e+00}
      deform[    2]={ 0.00000e+00,  0.00000e+00,  0.00000e+00}
   simulated-tempering            = false
   swapcoords                     = no
   userint1                       = 0
   userint2                       = 0
   userint3                       = 0
   userint4                       = 0
   userreal1                      = 0
   userreal2                      = 0
   userreal3                      = 0
   userreal4                      = 0
   applied-forces:
     electric-field:
       x:
         E0                       = 0
         omega                    = 0
         t0                       = 0
         sigma                    = 0
       y:
         E0                       = 0
         omega                    = 0
         t0                       = 0
         sigma                    = 0
       z:
         E0                       = 0
         omega                    = 0
         t0                       = 0
         sigma                    = 0
     density-guided-simulation:
       active                     = false
       group                      = protein
       similarity-measure         = inner-product
       atom-spreading-weight      = unity
       force-constant             = 1e+09
       gaussian-transform-spreading-width = 0.2
       gaussian-transform-spreading-range-in-multiples-of-width = 4
       reference-density-filename = reference.mrc
       nst                        = 1
       normalize-densities        = true
       adaptive-force-scaling     = false
       adaptive-force-scaling-time-constant = 4
       shift-vector               =
       transformation-matrix      =
     qmmm-cp2k:
       active                     = false
       qmgroup                    = System
       qmmethod                   = PBE
       qmfilenames                =
       qmcharge                   = 0
       qmmultiplicity             = 1
grpopts:
   nrdf:        6170
   ref-t:      298.15
   tau-t:         0.2
annealing:          No
annealing-npoints:           0
   acc:	           0           0           0
   nfreeze:           N           N           N
   energygrp-flags[  0]: 0

The -nsteps functionality is deprecated, and may be removed in a future version. Consider using gmx convert-tpr -nsteps or changing the appropriate .mdp file field.

Overriding nsteps with value passed on the command line: 1000000 steps, 2e+03 ps
Changing nstlist from 10 to 40, rlist from 1 to 1.098

Initializing Domain Decomposition on 1 ranks
Dynamic load balancing: auto
Using update groups, nr 883, average size 3.0 atoms, max. radius 0.091 nm
Minimum cell size due to atom displacement: 0.314 nm
Using 0 separate PME ranks because: there are too few total ranks for efficient splitting
Optimizing the DD grid for 1 cells with a minimum initial size of 0.314 nm
The maximum allowed number of cells is: X 9 Y 9 Z 9
Domain decomposition grid 1 x 1 x 1, separate PME ranks 0
PME domain decomposition: 1 x 1 x 1

The initial number of communication pulses is:
The initial domain decomposition cell size is:

When dynamic load balancing gets turned on, these settings will change to:
The maximum number of communication pulses is:
The minimum size for domain decomposition cells is 1.280 nm
The requested allowed shrink of DD cells (option -dds) is: 0.80
The allowed shrink of domain decomposition cells is:

Using 1 MPI thread
Using 6 OpenMP threads

Pinning threads with an auto-selected logical cpu stride of 2
System total charge: 0.000
Will do PME sum in reciprocal space for electrostatic interactions.

Using a Gaussian width (1/beta) of 0.320163 nm for Ewald
Potential shift: LJ r^-12: -1.000e+00 r^-6: -1.000e+00, Ewald -1.000e-05
Initialized non-bonded Coulomb Ewald tables, spacing: 9.33e-04 size: 1073

Long Range LJ corr.: <C6> 2.9219e-04

Using SIMD 4x8 nonbonded short-range kernels

Using a dual 4x8 pair-list setup updated with dynamic pruning:
  outer list: updated every 40 steps, buffer 0.098 nm, rlist 1.098 nm
  inner list: updated every 11 steps, buffer 0.001 nm, rlist 1.001 nm
At tolerance 0.005 kJ/mol/ps per atom, equivalent classical 1x1 list would be:
  outer list: updated every 40 steps, buffer 0.213 nm, rlist 1.213 nm
  inner list: updated every 11 steps, buffer 0.042 nm, rlist 1.042 nm

Using Lorentz-Berthelot Lennard-Jones combination rule
Removing pbc first time

Linking all bonded interactions to atoms

Initializing LINear Constraint Solver

The number of constraints is 1762

There are: 2645 Atoms

Atom distribution over 1 domains: av 2645 stddev 0 min 2645 max 2645

Constraining the starting coordinates (step 0)

Constraining the coordinates at t0-dt (step 0)
Center of mass motion removal mode is Linear
We have the following groups for center of mass motion removal:
  0:  System
RMS relative constraint deviation after constraining: 4.04e-07
Initial temperature: 6.1997e-08 K

PLUMED: PLUMED is starting
PLUMED: Version: 2.8.3 (git: Unknown) compiled on Mar 18 2024 at 15:02:18
PLUMED: Please cite these papers when using PLUMED [1][2]
PLUMED: For further information see the PLUMED web page at http://www.plumed.org
PLUMED: Root: /srv/plumed/lib/plumed
PLUMED: For installed feature, see /srv/plumed/lib/plumed/src/config/config.txt
PLUMED: Molecular dynamics engine: gromacs
PLUMED: Precision of reals: 4
PLUMED: Running over 1 node
PLUMED: Number of threads: 6
PLUMED: Cache line size: 512
PLUMED: Number of atoms: 2645
PLUMED: File suffix:
PLUMED: FILE: plumed.dat
PLUMED: Action DISTANCE
PLUMED:   with label d1
PLUMED:   between atoms 2644 2645
PLUMED:   using periodic boundary conditions
PLUMED: Action COORDINATION
PLUMED:   with label coord
PLUMED:   between two groups of 1 and 881 atoms
PLUMED:   first group:
PLUMED:   2644
PLUMED:   second group:
PLUMED:   1  4  7  10  13  16  19  22  25  28  31  34  37  40  43  46  49  52  55  58  61  64  67  70
PLUMED:   73  76  79  82  85  88  91  94  97  100  103  106  109  112  115  118  121  124  127  130  133  136  139  142  145
PLUMED:   148  151  154  157  160  163  166  169  172  175  178  181  184  187  190  193  196  199  202  205  208  211  214  217  220
PLUMED:   223  226  229  232  235  238  241  244  247  250  253  256  259  262  265  268  271  274  277  280  283  286  289  292  295
PLUMED:   298  301  304  307  310  313  316  319  322  325  328  331  334  337  340  343  346  349  352  355  358  361  364  367  370
PLUMED:   373  376  379  382  385  388  391  394  397  400  403  406  409  412  415  418  421  424  427  430  433  436  439  442  445
PLUMED:   448  451  454  457  460  463  466  469  472  475  478  481  484  487  490  493  496  499  502  505  508  511  514  517  520
PLUMED:   523  526  529  532  535  538  541  544  547  550  553  556  559  562  565  568  571  574  577  580  583  586  589  592  595
PLUMED:   598  601  604  607  610  613  616  619  622  625  628  631  634  637  640  643  646  649  652  655  658  661  664  667  670
PLUMED:   673  676  679  682  685  688  691  694  697  700  703  706  709  712  715  718  721  724  727  730  733  736  739  742  745
PLUMED:   748  751  754  757  760  763  766  769  772  775  778  781  784  787  790  793  796  799  802  805  808  811  814  817  820
PLUMED:   823  826  829  832  835  838  841  844  847  850  853  856  859  862  865  868  871  874  877  880  883  886  889  892  895
PLUMED:   898  901  904  907  910  913  916  919  922  925  928  931  934  937  940  943  946  949  952  955  958  961  964  967  970
PLUMED:   973  976  979  982  985  988  991  994  997  1000  1003  1006  1009  1012  1015  1018  1021  1024  1027  1030  1033  1036  1039  1042  1045
PLUMED:   1048  1051  1054  1057  1060  1063  1066  1069  1072  1075  1078  1081  1084  1087  1090  1093  1096  1099  1102  1105  1108  1111  1114  1117  1120
PLUMED:   1123  1126  1129  1132  1135  1138  1141  1144  1147  1150  1153  1156  1159  1162  1165  1168  1171  1174  1177  1180  1183  1186  1189  1192  1195
PLUMED:   1198  1201  1204  1207  1210  1213  1216  1219  1222  1225  1228  1231  1234  1237  1240  1243  1246  1249  1252  1255  1258  1261  1264  1267  1270
PLUMED:   1273  1276  1279  1282  1285  1288  1291  1294  1297  1300  1303  1306  1309  1312  1315  1318  1321  1324  1327  1330  1333  1336  1339  1342  1345
PLUMED:   1348  1351  1354  1357  1360  1363  1366  1369  1372  1375  1378  1381  1384  1387  1390  1393  1396  1399  1402  1405  1408  1411  1414  1417  1420
PLUMED:   1423  1426  1429  1432  1435  1438  1441  1444  1447  1450  1453  1456  1459  1462  1465  1468  1471  1474  1477  1480  1483  1486  1489  1492  1495
PLUMED:   1498  1501  1504  1507  1510  1513  1516  1519  1522  1525  1528  1531  1534  1537  1540  1543  1546  1549  1552  1555  1558  1561  1564  1567  1570
PLUMED:   1573  1576  1579  1582  1585  1588  1591  1594  1597  1600  1603  1606  1609  1612  1615  1618  1621  1624  1627  1630  1633  1636  1639  1642  1645
PLUMED:   1648  1651  1654  1657  1660  1663  1666  1669  1672  1675  1678  1681  1684  1687  1690  1693  1696  1699  1702  1705  1708  1711  1714  1717  1720
PLUMED:   1723  1726  1729  1732  1735  1738  1741  1744  1747  1750  1753  1756  1759  1762  1765  1768  1771  1774  1777  1780  1783  1786  1789  1792  1795
PLUMED:   1798  1801  1804  1807  1810  1813  1816  1819  1822  1825  1828  1831  1834  1837  1840  1843  1846  1849  1852  1855  1858  1861  1864  1867  1870
PLUMED:   1873  1876  1879  1882  1885  1888  1891  1894  1897  1900  1903  1906  1909  1912  1915  1918  1921  1924  1927  1930  1933  1936  1939  1942  1945
PLUMED:   1948  1951  1954  1957  1960  1963  1966  1969  1972  1975  1978  1981  1984  1987  1990  1993  1996  1999  2002  2005  2008  2011  2014  2017  2020
PLUMED:   2023  2026  2029  2032  2035  2038  2041  2044  2047  2050  2053  2056  2059  2062  2065  2068  2071  2074  2077  2080  2083  2086  2089  2092  2095
PLUMED:   2098  2101  2104  2107  2110  2113  2116  2119  2122  2125  2128  2131  2134  2137  2140  2143  2146  2149  2152  2155  2158  2161  2164  2167  2170
PLUMED:   2173  2176  2179  2182  2185  2188  2191  2194  2197  2200  2203  2206  2209  2212  2215  2218  2221  2224  2227  2230  2233  2236  2239  2242  2245
PLUMED:   2248  2251  2254  2257  2260  2263  2266  2269  2272  2275  2278  2281  2284  2287  2290  2293  2296  2299  2302  2305  2308  2311  2314  2317  2320
PLUMED:   2323  2326  2329  2332  2335  2338  2341  2344  2347  2350  2353  2356  2359  2362  2365  2368  2371  2374  2377  2380  2383  2386  2389  2392  2395
PLUMED:   2398  2401  2404  2407  2410  2413  2416  2419  2422  2425  2428  2431  2434  2437  2440  2443  2446  2449  2452  2455  2458  2461  2464  2467  2470
PLUMED:   2473  2476  2479  2482  2485  2488  2491  2494  2497  2500  2503  2506  2509  2512  2515  2518  2521  2524  2527  2530  2533  2536  2539  2542  2545
PLUMED:   2548  2551  2554  2557  2560  2563  2566  2569  2572  2575  2578  2581  2584  2587  2590  2593  2596  2599  2602  2605  2608  2611  2614  2617  2620
PLUMED:   2623  2626  2629  2632  2635  2638  2641
PLUMED:   using periodic boundary conditions
PLUMED:   using neighbor lists with
PLUMED:   update every 10 steps and cutoff 0.550000
PLUMED:   contacts are counted with cutoff 0.315.  Using rational switching function with parameters d0=0 nn=12 mm=24
PLUMED: Action METAD
PLUMED:   with label metad
PLUMED:   with arguments d1
PLUMED:   added component to this action:  metad.bias
PLUMED:   Gaussian width  0.020000  Gaussian height 0.500000
PLUMED:   Gaussian deposition pace 500
PLUMED:   Gaussian file HILLS
PLUMED:   Well-Tempered Bias Factor 5.000000
PLUMED:   Hills relaxation time (tau) 19.954709
PLUMED:   KbT 2.494339
PLUMED:   Grid min 0.15
PLUMED:   Grid max 0.85
PLUMED:   Grid bin 400
PLUMED:   Grid uses spline interpolation
PLUMED:   added component to this action:  metad.rbias
PLUMED:   added component to this action:  metad.rct
PLUMED:   The c(t) reweighting factor will be calculated every 1 hills
PLUMED:   Bibliography [3][4][5]
PLUMED: Action UPPER_WALLS
PLUMED:   with label uwall
PLUMED:   with arguments d1
PLUMED:   added component to this action:  uwall.bias
PLUMED:   at 0.600000
PLUMED:   with an offset 0.000000
PLUMED:   with force constant 2000.000000
PLUMED:   and exponent 2.000000
PLUMED:   rescaled 1.000000
PLUMED:   added component to this action:  uwall.force2
PLUMED: Action PRINT
PLUMED:   with label @4
PLUMED:   with stride 500
PLUMED:   with arguments d1 coord metad.bias metad.rbias metad.rct uwall.bias
PLUMED:   on file COLVAR
PLUMED:   with format  %f
PLUMED: END FILE: plumed.dat
PLUMED: Timestep: 0.002000
PLUMED: KbT: 2.478957
PLUMED: Relevant bibliography:
PLUMED:   [1] The PLUMED consortium, Nat. Methods 16, 670 (2019)
PLUMED:   [2] Tribello, Bonomi, Branduardi, Camilloni, and Bussi, Comput. Phys. Commun. 185, 604 (2014)
PLUMED:   [3] Laio and Parrinello, PNAS 99, 12562 (2002)
PLUMED:   [4] Barducci, Bussi, and Parrinello, Phys. Rev. Lett. 100, 020603 (2008)
PLUMED:   [5] Pratyush and Parrinello, J. Phys. Chem. B, 119, 736 (2015)
PLUMED: Please read and cite where appropriate!
PLUMED: Finished setup
Started mdrun on rank 0 Fri May 31 08:44:03 2024

           Step           Time
              0        0.00000

   Energies (kJ/mol)
          Angle        LJ (SR)  Disper. corr.   Coulomb (SR)   Coul. recip.
    1.40082e+03    1.11917e+04   -3.16741e+02   -6.17811e+04    1.65319e+02
      Potential    Kinetic En.   Total Energy  Conserved En.    Temperature
   -4.93399e+04    2.15484e+00   -4.93378e+04   -4.93362e+04    8.40091e-02
   -1.95038e+02   -2.46422e+03    4.80208e-07

	<====  A V E R A G E S  ====>

	Statistics over 1000001 steps using 10001 frames

   Energies (kJ/mol)
          Angle        LJ (SR)  Disper. corr.   Coulomb (SR)   Coul. recip.
    2.40409e+03    8.82422e+03   -3.28437e+02   -5.35975e+04    2.08105e+02
      Potential    Kinetic En.   Total Energy  Conserved En.    Temperature
   -4.24896e+04    7.64580e+03   -3.48438e+04   -4.44238e+04    2.98080e+02
 Pres. DC (bar) Pressure (bar)   Constr. rmsd
   -2.09705e+02    1.72925e+01    0.00000e+00

          Box-X          Box-Y          Box-Z
    2.96405e+00    2.96405e+00    2.96405e+00

   Total Virial (kJ/mol)
    2.53148e+03   -4.19905e+00   -4.72621e+00
   -3.68256e+00    2.53700e+03   -5.34541e+00
   -3.47707e+00   -7.10807e+00    2.54109e+03

   Pressure (bar)
    2.34576e+01    4.71144e+00    6.01923e+00
    4.04997e+00    1.66909e+01    6.02828e+00
    4.43460e+00    8.26873e+00    1.17289e+01
